src/tests/data/grids/ucte/substationName.uct
##C 2007.05.01
Test case to validate the determined name of a subtsation for an UCTE import in PowSyBl core package
contact : slimane.amar@rte-france.com

##N
##ZFR
F1TEST11 F1TEST11     0 0        0.00000 0.00000 0.00000 0.00000
F1TEST1A F1TEST1A     0 0        0.00000 0.00000 0.00000 0.00000
FTEST112 FTEST112     0 0        0.00000 0.00000 0.00000 0.00000
FTESTA11 FTESTA11     0 0        0.00000 0.00000 0.00000 0.00000
FTESTB11 FTESTB11     0 0        0.00000 0.00000 0.00000 0.00000

##T
F1TEST11 F1TEST1A 1 0 380.0 380.0 1186. 0.1280 44.280 0.000000 0.0000   1803 1TESTY771
FTESTA11 FTESTB11 1 0 380.0 380.0 1186. 0.1280 44.280 0.000000 0.0000   1803 TESTAY771
FTESTA11 FTEST112 1 0 380.0 380.0 1186. 0.1280 44.280 0.000000 0.0000   1803 TESTAY772
